 500
#cell 19.9291458 19.9291458 19.9291458 p p p
Cu   3.4983306 0.7766141 1.7189335
Cu   0.6160311 4.5581618 1.4721431
Cu   1.4628181 0.3840438 3.2856937
Cu   4.4797144 2.2040181 3.6484227
Cu   4.1860104 4.8155628 3.9989024
Cu   8.6200075 3.5232506 4.2187023
Cu   8.2101736 2.407362 1.6013888
Cu   8.4659243 4.7368069 0.5956501
Cu   5.6676102 2.0171309 1.3362471
Cu   6.8013187 2.1471362 4.0132208
Cu   9.3609915 0.0365951 1.0855309
Cu   2.5879898 2.1718979 8.77915
Cu   1.4442426 3.1657105 6.8002591
Cu   3.0353985 4.5857749 8.165515
Cu   4.7021475 0.8611786 7.8891988
Cu   5.676775 0.5897209 5.5521198
Cu   5.0984316 3.0763369 9.016571
Cu   6.0822015 4.9404794 7.7708812
Cu   8.3920717 0.4849988 5.3783364
Cu   9.0745697 0.9233984 8.0410643
Cu   6.3683043 4.5379477 5.1296787
Cu   9.935977 2.6681152 6.3694115
Cu   1.226962 2.873817 14.4098396
Cu   0.9350302 4.1660571 12.4820605
Cu   3.9315128 1.0908726 10.4836912
Cu   2.0573506 0.5766293 13.7889824
Cu   5.0310283 0.1253589 12.3238688
Cu   7.3667836 0.7696761 12.4460068
Cu   9.357872 1.3226134 10.902936
Cu   8.1710653 3.2440224 11.7706614
Cu   9.5316916 1.7994634 13.4816208
Cu   6.1218357 4.7882548 10.7095442
Cu   6.4964824 4.4385176 13.2365427
Cu   9.115777 4.3855972 13.9203368
Cu   5.7339487 2.6220722 11.7357292
Cu   1.7709841 1.6661445 18.028759
Cu   3.685689 3.9424482 18.6525326
Cu   2.9769798 1.5622648 15.9645758
Cu   1.2861244 3.9834032 19.1110802
Cu   7.3740401 1.5335685 17.3170223
Cu   9.4332381 4.8259788 18.2360783
Cu   5.2513204 3.252275 16.5812912
Cu   7.2693706 0.6973108 19.7597046
Cu   5.290257 0.7650355 16.261322
Cu   9.2654877 2.9436394 16.211153
Cu   4.4589863 6.6693435 2.113236
Cu   2.2913852 5.799747 3.1144843
Cu   0.8000251 7.1944499 4.8905984
Cu   8.3851862 8.9166918 2.5593543
Cu   5.7756157 8.969883 2.1458464
Cu   5.2512093 5.3933492 0.1618151
Cu   7.0728612 6.8894114 1.3289827
Cu   3.2480288 8.7055063 7.3125377
Cu   1.5836014 9.6483908 8.9326706
Cu   1.9611586 5.1178722 5.60109
Cu   6.9940554 6.887281 9.4272166
Cu   5.4138632 8.983325 6.2991719
Cu   8.6667071 8.1321659 5.1659637
Cu   6.8505082 7.2421317 6.9862076
Cu   2.1577768 6.0967431 11.2136049
Cu   3.0217242 8.4921541 10.7234984
Cu   0.5418145 7.6004348 10.1114292
Cu   0.1393724 9.3454514 14.3634339
Cu   2.7377749 5.0653448 13.6021281
Cu   4.9111372 5.3023071 14.9380522
Cu   8.0854883 9.3172388 10.0384817
Cu   6.483932 8.204957 11.4446039
Cu   6.9787078 6.8852478 14.102562
Cu   9.4009457 7.2418237 14.4915552
Cu   2.8952832 8.0482073 18.0869274
Cu   1.3968903 5.947515 17.5940285
Cu   2.7679143 6.7946887 15.671504
Cu   0.9331302 8.4756155 19.5776501
Cu   4.8772526 9.5584793 17.8866692
Cu   0.6554498 5.5594712 15.0561285
Cu   4.875947 7.892758 14.9474382
Cu   9.1408787 9.7197151 15.895114
Cu   7.3735833 6.3389449 18.7431221
Cu   5.1190834 7.8864246 19.7611122
Cu   2.816823 11.9216786 1.6166123
Cu   4.4286628 10.9547816 3.0772796
Cu   0.6343013 13.1906891 2.6824875
Cu   1.7752751 10.4789114 3.4327216
Cu   1.3323983 13.2476034 0.1240687
Cu   8.0785627 12.9349022 3.7389627
Cu   9.4234114 10.6112137 4.8568678
Cu   7.2535558 11.2833481 1.8708336
Cu   5.5999875 13.0217266 1.9997712
Cu   4.411614 13.6537829 7.4365182
Cu   3.9315806 10.5881539 5.5703092
Cu   1.1840266 12.2172651 9.6686831
Cu   0.4330228 12.0952282 7.0463243
Cu   3.264524 14.8023005 5.5663767
Cu   9.6565676 13.8216477 7.7496629
Cu   5.8316279 11.4246207 7.1746984
Cu   5.3479667 12.1936941 9.5183039
Cu   7.9790474 12.3806124 6.2292009
Cu   7.8935858 11.7875166 9.0379705
Cu   9.9641286 11.3928309 7.3990102
Cu   2.0461087 10.834836 13.5706654
Cu   1.4078976 12.7102938 12.0118599
Cu   3.2406049 11.006525 10.871955
Cu   1.4157614 13.2306862 14.4663801
Cu   0.6978306 14.6497183 10.5895119
Cu   6.5547834 11.9458628 13.3594303
Cu   9.5397253 11.5717926 14.1079817
Cu   6.2713227 10.8314171 11.2736092
Cu   8.8286009 14.0365324 10.1550531
Cu   0.9491508 11.2184305 16.0635815
Cu   3.4165964 12.1163855 15.5474673
Cu   3.8953466 13.2863808 19.7285042
Cu   3.2425313 14.8177939 15.1839247
Cu   4.9461628 12.18536 17.4948254
Cu   7.6107946 11.7781134 15.4634867
Cu   5.6588002 13.4259339 15.18571
Cu   9.0179358 14.2622862 18.973505
Cu   5.4892302 10.5520735 15.4004526
Cu   7.3043399 13.6723948 17.0580025
Cu   8.8146315 11.8257418 19.7613678
Cu   6.599998 13.196722 19.3708801
Cu   7.1909032 11.0377846 17.8198128
Cu   9.5715761 9.9647504 18.2789097
Cu   4.0091743 16.5848065 4.0339007
Cu   1.6233496 17.7605515 3.5289574
Cu   1.3622066 15.4760599 4.0182858
Cu   8.2720823 16.5426922 3.0499954
Cu   5.2386685 19.118351 0.4699832
Cu   6.1053801 15.2211218 3.3323574
Cu   5.8255329 17.4694424 2.3821869
Cu   9.2371626 18.7343598 3.3974567
Cu   4.6694994 18.3994942 6.7162509
Cu   2.2543512 16.5086231 9.8509712
Cu   0.0896723 19.1355419 4.9954124
Cu   0.0110519 19.088232 7.3434177
Cu   6.9235358 17.0487289 7.5823694
Cu   9.0787373 16.0611305 8.5275259
Cu   6.9240728 19.5325833 7.4873977
Cu   5.4980831 15.6613741 5.8845182
Cu   4.6798744 17.5571137 13.0843849
Cu   4.6819277 16.1883144 11.1601172
Cu   0.3220875 16.943779 11.5970402
Cu   4.0466046 19.5423336 14.5921908
Cu   0.0375942 19.1464615 10.2596951
Cu   6.9202466 18.3687534 11.7110806
Cu   6.975307 16.2274704 10.1303597
Cu   5.042552 15.3099756 13.7428332
Cu   8.965581 17.125391 14.4483776
Cu   6.9641614 16.3766022 12.823659
Cu   2.4178972 16.309845 17.1220894
Cu   1.3802067 17.396946 19.1012058
Cu   4.1311302 17.4073238 18.8683682
Cu   4.4770565 17.1507053 15.6976061
Cu   0.7074911 15.3654299 15.5113898
Cu   2.7101169 15.3638373 19.5203247
Cu   0.2456744 19.5388069 18.5564595
Cu   0.1852865 17.6407299 16.6904793
Cu   2.6848531 19.5181961 19.7164517
Cu   9.8482076 16.7639294 18.745678
Cu   8.4098606 17.6045208 16.7956181
Cu   7.3122277 15.855569 18.3039436
Cu   8.966403 19.355362 18.3535004
Cu   6.8026071 15.9313154 15.6177092
Cu   11.648572 1.7218493 1.1367337
Cu   12.7506171 3.7059713 2.5876975
Cu   14.018055 2.7627478 0.4932772
Cu   10.2321129 3.8746258 2.0995579
Cu   12.2044144 1.9347976 4.775919
Cu   13.8374262 0.1643584 0.4976985
Cu   16.2946835 1.6088821 1.4284281
Cu   19.593853 2.3913565 2.558702
Cu   16.1032219 1.9234184 4.2353511
Cu   17.534317 3.26718 3.2855611
Cu   15.284524 3.7539807 2.2922688
Cu   12.5450497 3.19417 6.9877944
Cu   14.3825264 1.5731634 6.3024979
Cu   10.907299 0.0317867 9.5922385
Cu   10.7122107 4.8632146 7.7144962
Cu   15.1901751 3.513794 7.6172071
Cu   19.4871674 4.615149 6.8774324
Cu   17.273407 3.7782436 5.8796898
Cu   16.057272 1.2928051 9.060133
Cu   13.9096336 1.5029592 13.8968058
Cu   13.219923 3.3848386 11.8164797
Cu   13.953621 4.1947179 14.1524315
Cu   10.6140671 3.4444261 11.884203
Cu   11.541502 0.2542353 14.5435171
Cu   14.8388453 1.0783798 11.4269533
Cu   19.0806751 1.5324012 13.5835104
Cu   18.8039036 3.2180648 11.5433789
Cu   15.4020167 3.5131192 10.299099
Cu   12.7133522 1.7240173 18.7001438
Cu   11.454897 3.5343929 17.2816773
Cu   13.3470087 1.261799 16.2926808
Cu   11.063158 0.9335746 17.0103474
Cu   15.5194865 2.5659404 15.5759783
Cu   17.6968727 1.4407295 15.8335619
Cu   15.9501716 3.85384 19.7074909
Cu   17.1605415 3.4738579 17.3728905
Cu   18.6773167 1.2684106 18.0765514
Cu   13.4717379 8.3855486 2.8045569
Cu   11.883975 6.0447154 2.3343334
Cu   12.9615212 6.4659648 4.4869075
Cu   12.2014637 7.9835992 0.7066082
Cu   14.6065836 6.0678835 2.9901252
Cu   10.1786633 9.5342989 0.7998797
Cu   16.66502 5.5010438 4.2675495
Cu   19.6300164 9.3070765 3.772285
Cu   18.2480335 8.5784254 1.323078
Cu   18.083168 7.485663 3.5344301
Cu   15.9099588 8.2056789 1.957896
Cu   10.8268576 6.8818822 5.843453
Cu   12.8695212 5.6141887 6.6248145
Cu   10.7397843 9.2469263 6.4285474
Cu   12.9700556 8.5820799 5.4626303
Cu   14.7285967 7.8661246 9.6286335
Cu   10.5184489 9.6614208 9.0293894
Cu   14.9042598 8.9857312 7.1834264
Cu   15.9978934 5.8364153 9.4108191
Cu   18.5777931 6.1511288 8.8847714
Cu   19.2889347 8.5395088 8.163146
Cu   16.9237328 7.9848238 8.1252422
Cu   12.7790594 8.3096209 12.89851
Cu   12.3065729 7.2764907 10.6680002
Cu   14.3002195 6.7993684 14.3513165
Cu   10.7357779 5.335443 10.2589827
Cu   10.759285 9.4962607 14.0745068
Cu   17.3544483 5.1543803 11.2152529
Cu   16.8083744 6.6034446 13.1993103
Cu   17.9887754 8.9634582 13.2073994
Cu   18.5791779 7.2191196 14.7734213
Cu   11.8904744 6.1331186 18.0727654
Cu   11.9088888 8.7297011 18.3529072
Cu   12.8875218 5.3935642 15.8580942
Cu   10.439663 5.3369866 15.8858004
Cu   16.6123905 5.625629 18.4107876
Cu   16.219162 9.8421516 17.8763352
Cu   18.7100849 5.5980158 16.7966328
Cu   17.5191765 7.7914319 17.2308502
Cu   16.5891991 7.8807264 19.5050106
Cu   18.7368679 9.4608021 18.8545418
Cu   12.4405995 12.8979054 2.9312248
Cu   13.7409544 12.4354038 0.6642453
Cu   12.13937 10.7423764 4.4260392
Cu   12.2750254 10.5040055 1.8082458
Cu   10.2350617 14.5396357 3.2335014
Cu   14.6527758 13.701211 2.5771585
Cu   19.4093552 11.5840826 4.5793767
Cu   16.2447224 13.2813349 0.7979542
Cu   18.0561123 12.2261715 2.5429731
Cu   18.8592988 13.2459021 0.4479078
Cu   17.2965546 9.9942608 3.4279557
Cu   12.4391899 13.7372351 7.4986673
Cu   13.9145288 12.3353348 9.3422985
Cu   14.1462631 14.7063284 9.396246
Cu   14.6821165 10.5217085 5.3170519
Cu   13.712018 12.7830286 5.1939707
Cu   17.7596684 12.6594391 7.0500407
Cu   19.3200588 13.776124 8.7962189
Cu   15.3896361 11.863927 7.2017541
Cu   11.3174563 11.2110357 12.3807011
Cu   10.5635805 13.7750912 12.0703888
Cu   14.6834555 13.1384573 14.1058302
Cu   16.3690643 10.9979382 13.8207035
Cu   18.9841462 12.7636233 11.0528088
Cu   17.4707489 10.7703915 11.5284853
Cu   16.8117848 13.2660389 12.4639635
Cu   15.0761957 11.5521832 11.6757803
Cu   11.5104885 10.4196415 16.4206066
Cu   11.4647799 14.3807039 18.2332611
Cu   13.8342591 10.0030937 17.1496677
Cu   15.0593824 11.8593922 18.7907124
Cu   17.1353588 13.1711636 15.0491991
Cu   19.739872 11.9589272 18.408474
Cu   19.3718929 13.3100042 16.0859261
Cu   15.1513624 14.4300242 16.326088
Cu   15.5530253 11.6191702 16.1556473
Cu   11.2123108 19.2963925 4.5333429
Cu   13.0105534 15.3729334 2.2170677
Cu   10.4894572 16.7272072 4.4330206
Cu   11.6909266 19.3429299 2.1157427
Cu   13.3324995 17.5691681 0.7586836
Cu   15.6918001 19.5366764 4.7614637
Cu   15.2263231 15.3195219 4.1203103
Cu   17.7863732 17.5135441 1.5231346
Cu   19.0979633 17.0346298 3.6911278
Cu   15.7111864 19.1160297 2.0589333
Cu   17.8963052 19.9073888 0.2275583
Cu   17.4507714 15.3928309 0.1422088
Cu   16.4968853 17.3883801 3.6870556
Cu   15.4478445 16.1014652 1.6913239
Cu   11.4231644 17.8109665 8.4732237
Cu   10.9099208 15.7484522 6.780335
Cu   13.4046784 16.3433972 7.6406923
Cu   12.3303337 17.7077027 6.0885396
Cu   13.4459172 19.6953278 5.1453161
Cu   14.9166994 17.1698494 5.7921725
Cu   13.2167406 19.3611908 9.8760452
Cu   17.3182297 15.5563326 5.3169308
Cu   19.7420292 16.5661946 6.0173149
Cu   18.0531063 15.1821585 7.4627071
Cu   17.8403626 19.193697 8.8583728
Cu   11.451313 18.0018139 11.046649
Cu   11.5620709 17.8925324 13.6057053
Cu   12.3533917 15.8682586 11.9130612
Cu   10.8859882 15.6668959 14.0040569
Cu   13.6479941 18.8890572 14.8548232
Cu   13.7575922 17.1104183 9.98201
Cu   19.927044 19.2660217 12.7934199
Cu   18.2245445 18.9832172 14.6960287
Cu   16.2735748 15.2386103 14.0073633
Cu   18.1009655 15.315505 10.5316592
Cu   16.0519218 17.7027283 14.3300724
Cu   15.7189207 18.96665 10.2754068
Cu   19.4622364 17.1739521 14.0470543
Cu   12.4066124 16.7861424 18.5175553
Cu   13.673564 19.3203907 17.865141
Cu   12.5670929 15.282073 16.3611889
Cu   15.4898405 19.860901 16.0592995
Cu   16.6013794 15.9820148 18.0713596
Cu   18.6839276 17.4498825 19.1970882
Zr   3.4130626 3.6013952 1.386841
Zr   1.9085532 3.0010839 3.9206586
Zr   1.2104212 1.6588911 0.5971233
Zr   6.9482484 0.0717057 2.5669146
Zr   6.4288025 4.3365045 2.4089456
Zr   4.2685514 3.0989232 6.3040571
Zr   2.3677921 0.6493544 6.105154
Zr   0.5885707 4.3078542 9.5901575
Zr   8.187047 4.2201476 9.1676092
Zr   7.2094712 2.4273467 6.7542873
Zr   6.872069 1.3124503 9.7863999
Zr   4.0473681 2.5059562 13.7264576
Zr   3.4315877 3.8367663 10.9762612
Zr   1.156685 1.6158921 11.4858742
Zr   6.9480472 2.2127953 14.6099062
Zr   2.7335506 4.1678948 16.282198
Zr   4.4780231 1.4320439 18.8513184
Zr   0.3665674 0.345873 15.7733908
Zr   9.5673504 2.1203518 19.0535717
Zr   6.7468515 3.5857587 18.9002972
Zr   9.033721 0.1913241 15.6665125
Zr   3.1019053 9.112051 1.2470955
Zr   3.1845083 8.2605066 4.1803207
Zr   0.5278825 7.4139533 2.1647706
Zr   2.5494595 6.2246413 0.1332809
Zr   6.3224411 7.256455 4.1327744
Zr   9.0674706 6.0973549 3.1557303
Zr   9.8379145 6.9477534 0.3525914
Zr   1.3730954 6.7432542 7.780107
Zr   4.2657385 6.3104115 6.2134385
Zr   4.2577973 6.6022859 9.3253431
Zr   0.953354 9.7018814 6.1105552
Zr   8.0422173 9.5879011 7.2988458
Zr   8.5720825 5.4637223 6.2541781
Zr   9.5821219 7.1549821 8.7154665
Zr   5.355968 9.4163609 9.1723003
Zr   1.9342712 7.7514606 13.328682
Zr   4.5115719 9.6912537 12.914117
Zr   4.7982583 6.4583445 12.463563
Zr   0.5244342 9.9114686 11.4679213
Zr   7.7134242 9.4477959 13.5642071
Zr   8.3244944 6.1285133 11.8488418
Zr   2.955307 9.5443583 15.8089781
Zr   0.3163239 8.1235514 16.6843701
Zr   4.849802 6.2325568 17.5562973
Zr   7.4634347 5.1766777 16.0916328
Zr   9.5786534 7.45711 17.336628
Zr   7.5571809 9.0952873 19.7736569
Zr   6.8607164 8.4787693 16.6366768
Zr   3.2953377 14.3617716 2.4843369
Zr   0.2078738 10.6876898 1.2711777
Zr   2.2497211 12.5390921 4.8172674
Zr   5.2855044 11.0120993 0.1625261
Zr   8.1248837 14.3234148 1.5048021
Zr   6.8580594 10.3874693 4.3415713
Zr   5.487835 13.0726681 4.8429556
Zr   9.9495498 11.6522389 2.4150171
Zr   3.0730133 11.4634352 7.9335314
Zr   1.5975102 14.560422 7.6256089
Zr   6.9296184 14.1916781 8.1044531
Zr   4.0171413 12.742816 13.0221329
Zr   3.3830776 13.8641864 10.1494207
Zr   8.3147307 14.0384817 13.9572784
Zr   6.3522744 13.9600716 11.4716349
Zr   8.79496 11.6524954 11.5330744
Zr   2.0952387 13.5005617 17.3753471
Zr   2.3354488 10.8452588 18.6942883
Zr   9.7937622 12.2834454 17.04422
Zr   3.204463 17.4677716 1.4456412
Zr   4.0228677 19.2791481 3.8825574
Zr   0.4164791 15.6572542 1.3959345
Zr   0.2557556 18.7873993 1.4016503
Zr   7.8315292 17.5766773 0.4192605
Zr   5.4721899 15.4813204 0.508973
Zr   2.2503748 17.3676739 6.1900787
Zr   4.3830094 16.1390038 8.2358647
Zr   2.3804774 19.1314964 8.7607117
Zr   5.2744575 18.5905876 9.7433319
Zr   9.4492226 18.1963577 6.5607009
Zr   8.431633 15.1722956 5.5048366
Zr   8.6677628 18.564066 9.6010914
Zr   6.8159185 17.938509 4.9990172
Zr   2.6132941 18.6331101 11.7396784
Zr   2.357718 15.3577185 12.6394291
Zr   2.0223088 17.6388893 14.5135641
Zr   9.3937388 19.1087723 12.6768465
Zr   9.3800135 16.1809959 11.6336651
Zr   6.6377235 18.7244797 14.5644083
Zr   2.8501912 19.0623322 17.1670914
Zr   4.9225932 14.998891 17.3565865
Zr   6.1587567 18.6786442 17.6970902
Zr   9.6751175 15.281848 16.4202118
Zr   13.8547164 1.1480104 2.907114
Zr   11.1552324 4.3926234 4.7566519
Zr   14.4400187 3.8929138 4.860778
Zr   10.0357285 1.4459557 3.388475
Zr   18.0612164 0.0861021 3.1591735
Zr   18.3906574 3.1192083 0.1003367
Zr   19.4726143 4.970088 4.0028486
Zr   13.5560313 1.8483466 9.1536083
Zr   10.7351074 2.7506047 9.2748499
Zr   11.5826111 0.4946331 7.0735889
Zr   13.2593947 4.9135276 9.238184
Zr   19.4330883 2.0363112 5.3256369
Zr   19.7465611 1.4720334 8.4830895
Zr   17.0584507 1.0664557 6.7756191
Zr   17.5610657 3.6400395 8.7583924
Zr   11.9761716 0.9395766 11.9425344
Zr   11.6191082 2.9875914 14.6156721
Zr   17.7999192 0.9584476 11.054966
Zr   18.4513531 3.9891324 14.2092447
Zr   16.3543396 0.3712123 13.5941315
Zr   15.9621878 3.3064785 12.7920408
Zr   14.1868105 3.9108554 17.6279011
Zr   11.8001414 4.2638292 19.9129028
Zr   19.8427182 3.3101225 16.8678646
Zr   15.8147917 1.2638682 18.522604
Zr   10.91255 8.5735893 3.4912186
Zr   14.2799168 6.0818634 0.4401446
Zr   15.5983057 8.1139984 4.5842781
Zr   17.2698879 5.7231674 1.6820587
Zr   12.5320893 7.7877221 8.0451145
Zr   15.4774447 6.155376 6.927525
Zr   18.3656883 6.9843908 6.1393571
Zr   11.5407954 5.795291 13.0838375
Zr   14.469739 5.971869 11.8279877
Zr   10.1841765 8.6099911 11.7309208
Zr   12.9721242 9.9377442 10.5287295
Zr   15.4066534 8.8437234 12.2409439
Zr   19.419735 6.2404943 12.3228531
Zr   17.7957344 8.0540381 10.5986767
Zr   12.1681652 7.8632922 15.5882674
Zr   14.4294691 7.2526555 17.544672
Zr   14.2576609 9.4497328 19.9172822
Zr   19.1757412 6.3471727 19.3638096
Zr   15.9529696 8.7198382 15.2655974
Zr   16.2056599 5.3940187 15.5909605
Zr   11.2973108 13.9240686 0.7453105
Zr   14.69242 10.9059258 2.7660651
Zr   16.4440575 12.6793156 4.6006232
Zr   17.0706768 10.8505918 0.4589871
Zr   17.7292137 14.8960238 2.7009673
Zr   12.7485972 10.9557258 7.2600484
Zr   10.9667492 12.3152418 9.6507502
Zr   10.7037545 12.9099884 5.3360214
Zr   17.5131397 10.0739546 6.2049837
Zr   15.8647432 10.3142042 9.2572975
Zr   19.4735928 14.0583162 5.2671189
Zr   18.901474 10.9434262 8.9149724
Zr   15.2166529 14.5293494 6.8623614
Zr   16.6471768 13.2676993 9.5196324
Zr   13.2121496 13.2659855 11.8499918
Zr   13.517191 10.667862 14.225421
Zr   11.5974903 13.2280464 14.6160116
Zr   19.0925865 11.7527294 13.6220818
Zr   19.0506706 14.7066927 13.0464401
Zr   13.2994766 12.7231131 17.0617104
Zr   11.6800747 11.2778711 19.2468567
Zr   14.3144636 14.9259348 19.3616066
Zr   17.1380062 13.295969 17.9690076
Zr   18.2510147 10.6067705 16.27384
Zr   13.5633421 17.7998333 3.3253546
Zr   10.695839 16.964512 1.5279583
Zr   12.6759272 15.182786 4.8511662
Zr   14.6158972 19.0238934 7.6484094
Zr   11.4944763 15.2782507 9.5642739
Zr   19.7043839 16.8724308 8.8230429
Zr   17.5800934 18.0689678 6.1656966
Zr   16.3293171 16.7476349 8.8521576
Zr   14.0783997 18.3384323 12.3818627
Zr   13.6809168 15.8410654 14.1576452
Zr   15.3613672 15.4182596 11.5534964
Zr   17.6352158 17.6878948 11.9194814
Zr   11.4558096 17.9154264 16.2664204
Zr   11.4112015 19.255106 19.3214111
Zr   14.6801863 17.1660309 16.7393303
Zr   19.7205811 15.2053118 18.3313122
Zr   15.7430315 18.1334953 19.6041699
Zr   17.8842984 15.9530458 15.8961172
Zr   17.5895367 18.7791786 17.2803593
