57
# 24 24 12 i i i      Nickel porphirine
    Ni        0.000000        0.000000        0.000000
    N        -1.354640       -1.354640        0.000000
    N         1.354640       -1.354640        0.000000
    N        -1.354640        1.354640        0.000000
    N         1.354640        1.354640        0.000000
    N         0.000000       -3.372790        0.000000
    N         0.000000        3.372790        0.000000
    N        -3.372790        0.000000        0.000000
    N         3.372790        0.000000        0.000000
    C         4.115690       -5.112030        0.000000
    C        -4.115690       -5.112030        0.000000
    C         4.115690        5.112030        0.000000
    C        -4.115690        5.112030        0.000000
    C        -5.112030       -4.115690        0.000000
    C         5.112030       -4.115690        0.000000
    C        -5.112030        4.115690        0.000000
    C         5.112030        4.115690        0.000000
    C        -3.420900        2.428090        0.000000
    C         3.420900        2.428090        0.000000
    C        -3.420900       -2.428090        0.000000
    C         3.420900       -2.428090        0.000000
    C         2.428090        3.420900        0.000000
    C        -2.428090        3.420900        0.000000
    C         2.428090       -3.420900        0.000000
    C        -2.428090       -3.420900        0.000000
    C         4.779350       -2.759330        0.000000
    C        -4.779350       -2.759330        0.000000
    C         4.779350        2.759330        0.000000
    C        -4.779350        2.759330        0.000000
    C        -2.759330       -4.779350        0.000000
    C         2.759330       -4.779350        0.000000
    C        -2.759330        4.779350        0.000000
    C         2.759330        4.779350        0.000000
    C         1.150730       -2.724980        0.000000
    C        -1.150730       -2.724980        0.000000
    C         1.150730        2.724980        0.000000
    C        -1.150730        2.724980        0.000000
    C        -2.724980       -1.150730        0.000000
    C         2.724980       -1.150730        0.000000
    C        -2.724980        1.150730        0.000000
    C         2.724980        1.150730        0.000000
    H         5.545570        1.985410        0.000000
    H        -5.545570        1.985410        0.000000
    H         5.545570       -1.985410        0.000000
    H        -5.545570       -1.985410        0.000000
    H         1.985410       -5.545570        0.000000
    H        -1.985410       -5.545570        0.000000
    H         1.985410        5.545570        0.000000
    H        -1.985410        5.545570        0.000000
    H         6.161750       -4.414890        0.000000
    H        -6.161750       -4.414890        0.000000
    H         6.161750        4.414890        0.000000
    H        -6.161750        4.414890        0.000000
    H        -4.414890       -6.161750        0.000000
    H         4.414890       -6.161750        0.000000
    H        -4.414890        6.161750        0.000000
    H         4.414890        6.161750        0.000000

