16
#cell 12. 8. 4. i i i
S     -1.936821395      0.958396344      0
S      1.936829958     -0.958397650      0
C     -3.141965111     -0.222868956      0
C     -2.611602348     -1.480056305      0
C     -1.209910344     -1.467476107      0
C     -0.685500940     -0.199363373      0
C      0.685504323      0.199356223      0
C      1.209907984      1.467471392      0
C      2.611599657      1.480058390      0
C      3.141968238      0.222873471      0
H     -4.186610177      0.077197674      0
H     -3.215923935     -2.386504599      0
H     -0.577313823     -2.357290492      0
H      0.577306637      2.357282376      0
H      3.215916562      2.386509798      0
H      4.186614714     -0.077188186      0
